40510375
  -OEChem-10262002002D

 41 42  0     1  0  0  0  0  0999 V2000
    5.4641   -0.2500    0.0000 O   0  0  0  0  0  0  0  0  0  0  0  0
    5.4641    1.7500    0.0000 O   0  0  0  0  0  0  0  0  0  0  0  0
    3.7320   -1.2500    0.0000 N   0  0  0  0  0  0  0  0  0  0  0  0
    2.8660   -1.7500    0.0000 C   0  0  2  0  0  0  0  0  0  0  0  0
    3.7320   -0.2500    0.0000 C   0  0  0  0  0  0  0  0  0  0  0  0
    4.5981    0.2500    0.0000 C   0  0  1  0  0  0  0  0  0  0  0  0
    2.8660   -2.7500    0.0000 C   0  0  0  0  0  0  0  0  0  0  0  0
    2.0000   -1.2500    0.0000 C   0  0  0  0  0  0  0  0  0  0  0  0
    4.5981    1.2500    0.0000 C   0  0  0  0  0  0  0  0  0  0  0  0
    2.0000   -3.2500    0.0000 C   0  0  0  0  0  0  0  0  0  0  0  0
    3.7320   -3.2500    0.0000 C   0  0  0  0  0  0  0  0  0  0  0  0
    2.0000   -4.2500    0.0000 C   0  0  0  0  0  0  0  0  0  0  0  0
    3.7320   -4.2500    0.0000 C   0  0  0  0  0  0  0  0  0  0  0  0
    2.8660   -4.7500    0.0000 C   0  0  0  0  0  0  0  0  0  0  0  0
    5.4641    2.7500    0.0000 C   0  0  0  0  0  0  0  0  0  0  0  0
    6.3301    3.2500    0.0000 C   0  0  0  0  0  0  0  0  0  0  0  0
    4.5981    3.2500    0.0000 C   0  0  0  0  0  0  0  0  0  0  0  0
    6.3301    4.2500    0.0000 C   0  0  0  0  0  0  0  0  0  0  0  0
    4.5981    4.2500    0.0000 C   0  0  0  0  0  0  0  0  0  0  0  0
    5.4641    4.7500    0.0000 C   0  0  0  0  0  0  0  0  0  0  0  0
    2.8660   -1.1300    0.0000 H   0  0  0  0  0  0  0  0  0  0  0  0
    3.5200    0.3326    0.0000 H   0  0  0  0  0  0  0  0  0  0  0  0
    3.1215   -0.3577    0.0000 H   0  0  0  0  0  0  0  0  0  0  0  0
    4.5981   -0.3700    0.0000 H   0  0  0  0  0  0  0  0  0  0  0  0
    4.2690   -1.5600    0.0000 H   0  0  0  0  0  0  0  0  0  0  0  0
    4.3860    1.8326    0.0000 H   0  0  0  0  0  0  0  0  0  0  0  0
    3.9875    1.1423    0.0000 H   0  0  0  0  0  0  0  0  0  0  0  0
    2.3100   -0.7131    0.0000 H   0  0  0  0  0  0  0  0  0  0  0  0
    1.4631   -0.9400    0.0000 H   0  0  0  0  0  0  0  0  0  0  0  0
    1.6900   -1.7869    0.0000 H   0  0  0  0  0  0  0  0  0  0  0  0
    1.4631   -2.9400    0.0000 H   0  0  0  0  0  0  0  0  0  0  0  0
    4.2690   -2.9400    0.0000 H   0  0  0  0  0  0  0  0  0  0  0  0
    6.0010    0.0600    0.0000 H   0  0  0  0  0  0  0  0  0  0  0  0
    1.4631   -4.5600    0.0000 H   0  0  0  0  0  0  0  0  0  0  0  0
    4.2690   -4.5600    0.0000 H   0  0  0  0  0  0  0  0  0  0  0  0
    2.8660   -5.3700    0.0000 H   0  0  0  0  0  0  0  0  0  0  0  0
    6.8671    2.9400    0.0000 H   0  0  0  0  0  0  0  0  0  0  0  0
    4.0611    2.9400    0.0000 H   0  0  0  0  0  0  0  0  0  0  0  0
    6.8671    4.5600    0.0000 H   0  0  0  0  0  0  0  0  0  0  0  0
    4.0611    4.5600    0.0000 H   0  0  0  0  0  0  0  0  0  0  0  0
    5.4641    5.3700    0.0000 H   0  0  0  0  0  0  0  0  0  0  0  0
  6  1  1  1  0  0  0
  1 33  1  0  0  0  0
  2  9  1  0  0  0  0
  2 15  1  0  0  0  0
  4  3  1  6  0  0  0
  3  5  1  0  0  0  0
  3 25  1  0  0  0  0
  4  7  1  0  0  0  0
  4  8  1  0  0  0  0
  4 21  1  0  0  0  0
  5  6  1  0  0  0  0
  5 22  1  0  0  0  0
  5 23  1  0  0  0  0
  6  9  1  0  0  0  0
  6 24  1  0  0  0  0
  7 10  2  0  0  0  0
  7 11  1  0  0  0  0
  8 28  1  0  0  0  0
  8 29  1  0  0  0  0
  8 30  1  0  0  0  0
  9 26  1  0  0  0  0
  9 27  1  0  0  0  0
 10 12  1  0  0  0  0
 10 31  1  0  0  0  0
 11 13  2  0  0  0  0
 11 32  1  0  0  0  0
 12 14  2  0  0  0  0
 12 34  1  0  0  0  0
 13 14  1  0  0  0  0
 13 35  1  0  0  0  0
 14 36  1  0  0  0  0
 15 16  2  0  0  0  0
 15 17  1  0  0  0  0
 16 18  1  0  0  0  0
 16 37  1  0  0  0  0
 17 19  2  0  0  0  0
 17 38  1  0  0  0  0
 18 20  2  0  0  0  0
 18 39  1  0  0  0  0
 19 20  1  0  0  0  0
 19 40  1  0  0  0  0
 20 41  1  0  0  0  0
M  END
> <PUBCHEM_COMPOUND_CID>
40510375

> <PUBCHEM_COMPOUND_CANONICALIZED>
1

> <PUBCHEM_CACTVS_COMPLEXITY>
247

> <PUBCHEM_CACTVS_HBOND_ACCEPTOR>
3

> <PUBCHEM_CACTVS_HBOND_DONOR>
2

> <PUBCHEM_CACTVS_ROTATABLE_BOND>
7

> <PUBCHEM_CACTVS_SUBSKEYS>
AAADceB6MAAAAAAAAAAAAAAAAAAAAAAAAAAwYAAAAAAAAAABQAAAHgAQCAAADDzhmAYyBoLABgCAAiBCAACCCAAgIAAIiIAODIgPNiKEsRuGOCjm0BGbqAeQwIAOAAAAAAAAAAAAAAAAAAAAAAAAAAAAAA==

> <PUBCHEM_IUPAC_OPENEYE_NAME>
(2S)-1-phenoxy-3-[[(1S)-1-phenylethyl]amino]propan-2-ol

> <PUBCHEM_IUPAC_CAS_NAME>
(2S)-1-phenoxy-3-[[(1S)-1-phenylethyl]amino]-2-propanol

> <PUBCHEM_IUPAC_NAME_MARKUP>
(2<I>S</I>)-1-phenoxy-3-[[(1<I>S</I>)-1-phenylethyl]amino]propan-2-ol

> <PUBCHEM_IUPAC_NAME>
(2S)-1-phenoxy-3-[[(1S)-1-phenylethyl]amino]propan-2-ol

> <PUBCHEM_IUPAC_SYSTEMATIC_NAME>
(2S)-1-phenoxy-3-[[(1S)-1-phenylethyl]amino]propan-2-ol

> <PUBCHEM_IUPAC_TRADITIONAL_NAME>
(2S)-1-phenoxy-3-[[(1S)-1-phenylethyl]amino]propan-2-ol

> <PUBCHEM_IUPAC_INCHI>
InChI=1S/C17H21NO2/c1-14(15-8-4-2-5-9-15)18-12-16(19)13-20-17-10-6-3-7-11-17/h2-11,14,16,18-19H,12-13H2,1H3/t14-,16-/m0/s1

> <PUBCHEM_IUPAC_INCHIKEY>
RXEDPFOIQRFAIZ-HOCLYGCPSA-N

> <PUBCHEM_XLOGP3_AA>
2.7

> <PUBCHEM_EXACT_MASS>
271.157229

> <PUBCHEM_MOLECULAR_FORMULA>
C17H21NO2

> <PUBCHEM_MOLECULAR_WEIGHT>
271.35

> <PUBCHEM_OPENEYE_CAN_SMILES>
CC(C1=CC=CC=C1)NCC(COC2=CC=CC=C2)O

> <PUBCHEM_OPENEYE_ISO_SMILES>
C[C@@H](C1=CC=CC=C1)NC[C@@H](COC2=CC=CC=C2)O

> <PUBCHEM_CACTVS_TPSA>
41.5

> <PUBCHEM_MONOISOTOPIC_WEIGHT>
271.157229

> <PUBCHEM_TOTAL_CHARGE>
0

> <PUBCHEM_HEAVY_ATOM_COUNT>
20

> <PUBCHEM_ATOM_DEF_STEREO_COUNT>
2

> <PUBCHEM_ATOM_UDEF_STEREO_COUNT>
0

> <PUBCHEM_BOND_DEF_STEREO_COUNT>
0

> <PUBCHEM_BOND_UDEF_STEREO_COUNT>
0

> <PUBCHEM_ISOTOPIC_ATOM_COUNT>
0

> <PUBCHEM_COMPONENT_COUNT>
1

> <PUBCHEM_CACTVS_TAUTO_COUNT>
-1

> <PUBCHEM_COORDINATE_TYPE>
1
5
255

> <PUBCHEM_BONDANNOTATIONS>
6  1  5
10  12  8
11  13  8
12  14  8
13  14  8
15  16  8
15  17  8
16  18  8
17  19  8
18  20  8
19  20  8
4  3  6
7  10  8
7  11  8

$$$$
